CRYSTAL
PRIMVEC 1
      3.9483276003       0.0000000000       0.0000000000
      0.0000000000       3.9383820684       0.0000000000
      0.0000000000       0.0000000000      23.2735469759
PRIMCOORD 1
4 1
47       1.3687127395       2.9537865513      22.2427323822
47       2.5796148609       0.9845955171       1.0308145937
35       0.6514738087       2.9537865513       1.7372076330
35       3.2968537917       0.9845955171      21.5363393429
