CRYSTAL
PRIMVEC 1
      4.4872052683       0.0000000000       0.0000000000
     -0.0000000000       4.4872052683       0.0000000000
      0.0000000000       0.0000000000      23.7781445381
PRIMCOORD 1
4 1
53       2.2436026341       0.0000000000      13.7492142816
47       0.0000000000       0.0000000000      11.8890722691
47       2.2436026341       2.2436026341      11.8890722691
53      -0.0000000000       2.2436026341      10.0289302565
