CRYSTAL
PRIMVEC 1
      3.3777146426       0.3035328732       0.0000000000
      0.4574490670       4.9105898921       0.0000000000
      0.0000000000       0.0000000000      22.1350849950
PRIMCOORD 1
4 1
8       1.1793473215       0.3942986212      12.2075409778
47       2.0640743423       2.6727285178      10.8613158162
7       2.0815241218       4.7713799162      11.2008027053
8       2.1123671125       0.5918893220      10.2682322471
