CRYSTAL
PRIMVEC 1
      4.8441267659       0.0000000000       0.0000000000
      0.0000000000       4.8441267659       0.0000000000
      0.0000000000       0.0000000000      21.7521320843
PRIMCOORD 1
6 1
17       2.4220633829       2.4220633829      10.8760660422
8       3.2623518720       1.5817748938      11.7459958554
8       1.5817748938       3.2623518720      11.7459958554
8       3.2623518720       3.2623518720      10.0061362290
47       0.0000000000       4.8441267659      10.8760660422
8       1.5817748939       1.5817748939      10.0061362289
