CRYSTAL
PRIMVEC 1
      3.1712269471       0.0000000000       0.0000000000
      0.0000000000       3.6684339642       0.0000000000
      0.0000000000       0.0000000000      25.0667805467
PRIMCOORD 1
6 1
13       1.5856134734       0.0000000000      11.7019228398
17       0.0000000000       0.0000000000      10.0137322717
8       1.5856134734       1.8342169820      12.1456654470
13       0.0000000000       1.8342169820      13.3648590513
17       1.5856134734       1.8342169820      15.0530491289
8       0.0000000000       0.0000000000      12.9211166937
