CRYSTAL
PRIMVEC 1
      3.6938042436       0.0000000000       0.0000000000
      0.0000000000       4.7193977781       0.0000000000
      0.0000000000       0.0000000000      22.4534425190
PRIMCOORD 1
4 1
33       1.8469021218       2.6894233562      10.0255818274
33       1.8469021218       2.0299744220      12.4278606916
33       0.0000000000       4.3896715247      10.0255817375
33       3.6938042436       0.3297262533      12.4278607815
