CRYSTAL
PRIMVEC 1
      4.2629528961       0.0576104574       0.0000000000
      0.0576104574       4.2629528961       0.0000000000
      0.0000000000       0.0000000000      24.0358498142
PRIMCOORD 1
4 1
79       3.2404208588       3.2404208588      12.0179249071
79       1.0801424949       1.0801424949      12.0179249071
35       0.0288052288       2.1314764480      10.0172385891
35       2.1314764480       0.0288052288      14.0186112251
