CRYSTAL
PRIMVEC 1
      4.3842273993      -0.1524609474       0.0000000000
     -0.1524609498       4.3842273678       0.0000000000
      0.0000000000       0.0000000000      24.3675606005
PRIMCOORD 1
4 1
79       3.2504465096       0.9820450991      12.1839398480
79       0.9813199400       3.2497213213      12.1839398480
53      -0.0762304749       2.1921136839      10.0119593965
53       2.1921136997      -0.0762304737      14.3550064635
