CRYSTAL
PRIMVEC 1
      3.7401087710       0.0000000000       0.0000000000
      0.0000000000       6.2960218054       0.0000000000
      0.0000000000       0.0000000000      22.5678790387
PRIMCOORD 1
4 1
34       3.7401087710       2.7395807182      12.5582324674
79       1.8700543855       3.8297808251      11.2839384183
79       0.0000000000       0.6817705909      11.2839410818
34       0.0000000000       4.9199827310      10.0096461100
