CRYSTAL
PRIMVEC 1
      4.5961832246       0.0000000000       0.0000000000
      0.0000000000       4.5961832246       0.0000000000
      0.0000000000       0.0000000000      25.3639234978
PRIMCOORD 1
6 1
56       0.0000000000       2.2980916123      14.0785650362
53       2.2980916123       0.0000000000      15.5723680695
56       2.2980916123       0.0000000000      11.2853584615
1       0.0000000000       0.0000000000      12.6819617489
1       2.2980916123       2.2980916123      12.6819617489
53       0.0000000000       2.2980916123       9.7915554283
