CRYSTAL
PRIMVEC 1
      4.2974468664       0.0000000000       0.0000000000
     -2.1487234332       3.7216981577       0.0000000000
      0.0000000000       0.0000000000      21.6662769578
PRIMCOORD 1
2 1
83       2.1487234333       1.2405660526       9.9599436922
83       0.0000000001       2.4811321053      11.7063332656
