CRYSTAL
PRIMVEC 1
      4.0267008388       0.0000000000       0.0000000000
      0.0000000000       4.0267008388       0.0000000000
      0.0000000000       0.0000000000      26.2985482455
PRIMCOORD 1
6 1
83       0.0000000000       2.0133504194      14.3940900016
53       2.0133504194       0.0000000000      16.2875673240
83       2.0133504194       0.0000000000      11.9044582438
53       0.0000000000       2.0133504194      10.0109809215
8       0.0000000000       0.0000000000      13.1492741227
8       2.0133504194       2.0133504194      13.1492741227
