CRYSTAL
PRIMVEC 1
      3.8875324013       0.0000000000       0.0000000000
      0.0000000000       3.8875324013       0.0000000000
      0.0000000000       0.0000000000      25.2772052667
PRIMCOORD 1
6 1
83       0.0000000000       1.9437662007      13.9324585638
83       1.9437662007       0.0000000000      11.3447467028
17       1.9437662007       0.0000000000      15.3428910520
17       0.0000000000       1.9437662007       9.9343142147
8       0.0000000000       0.0000000000      12.6386026333
8       1.9437662007       1.9437662007      12.6386026333
