CRYSTAL
PRIMVEC 1
      3.9323184065       0.0000000000       0.0000000000
      0.0000000000       3.9323184065       0.0000000000
      0.0000000000       0.0000000000      25.6724158506
PRIMCOORD 1
6 1
83       0.0000000000       1.9661592033      14.1210772197
35       1.9661592033       0.0000000000      15.7315768155
83       1.9661592033       0.0000000000      11.5513386310
35       0.0000000000       1.9661592033       9.9408390351
8       0.0000000000       0.0000000000      12.8362079253
8       1.9661592033       1.9661592033      12.8362079253
