CRYSTAL
PRIMVEC 1
      4.1571147163       0.0000000000       0.0000000000
     -2.0785573582       3.6001669509       0.0000000000
      0.0000000000       0.0000000000      27.0281638620
PRIMCOORD 1
5 1
83      -0.0000000000       2.4001113005      11.5479912888
34      -0.0000000000       2.4001113005      17.0620345189
83       2.0785573582       3.6001669508      15.4801725733
34       2.0785573582       1.2000556502      13.5140819310
34       2.0785573582       3.6001669508       9.9661293431
