CRYSTAL
PRIMVEC 1
      4.2328808458       0.0000000000       0.0000000000
     -2.1164404230       3.6657823438       0.0000000000
      0.0000000000       0.0000000000      27.3678603910
PRIMCOORD 1
5 1
83       2.1164404229       1.2219274479      15.8446339499
34       2.1164404229       1.2219274479       9.9868805621
83       0.0000000000       0.0000000000      11.5232264411
34       0.0000000000       0.0000000000      17.3809798289
52      -0.0000000001       2.4438548959      13.6839301956
