CRYSTAL
PRIMVEC 1
      4.2535585781       0.0000000000       0.0000000000
     -2.1267792892       3.6836897851       0.0000000000
      0.0000000000       0.0000000000      27.1371775344
PRIMCOORD 1
5 1
83       2.1267792890       1.2278965951      15.3463725927
52       2.1267792890       1.2278965951       9.9870966276
83       0.0000000000       0.0000000000      11.7908049417
52       0.0000000000       0.0000000000      17.1500809068
16      -0.0000000001       2.4557931900      13.5685887672
