CRYSTAL
PRIMVEC 1
      4.3027290791       0.0000000000       0.0000000000
     -2.1513645396       3.7262726882       0.0000000000
      0.0000000000       0.0000000000      27.3357123894
PRIMCOORD 1
5 1
83       0.0000000000       0.0000000000      11.7752716083
52       0.0000000000       0.0000000000      17.3437984207
34       0.0000000000       2.4841817922      13.6678561949
83       2.1513645396       1.2420908960      15.5604407813
52       2.1513645396       1.2420908960       9.9919139687
