CRYSTAL
PRIMVEC 1
      4.2688654517       0.0000000000       0.0000000000
     -2.1344327259       3.6969459265       0.0000000000
      0.0000000000       0.0000000000      27.1423439373
PRIMCOORD 1
5 1
83       0.0000000000       0.0000000000      11.1513414076
83      -0.0000000001       2.4646306177      15.4414916321
52       0.0000000000       0.0000000000      17.2572054579
52       2.1344327258       1.2323153088      13.3246537572
16      -0.0000000001       2.4646306177       9.8677525866
