CRYSTAL
PRIMVEC 1
      4.3900839089       0.0000000000       0.0000000000
     -2.1950419545       3.8019241899       0.0000000000
      0.0000000000       0.0000000000      27.6406742794
PRIMCOORD 1
5 1
83       2.1950419544       1.2673080632      15.8968448216
52       2.1950419544       1.2673080632      10.0024169306
83       2.1950419543       3.8019241898      11.7438294579
52      -0.0000000003       2.5346161265      13.8203371397
52       2.1950419543       3.8019241898      17.6382573488
