CRYSTAL
PRIMVEC 1
      4.2798064679       0.0000000000       0.0000000000
     -2.1399032340       3.7064211244       0.0000000000
      0.0000000000       0.0000000000      23.4743897465
PRIMCOORD 1
3 1
83       2.1399032340       1.2354737081      11.6790226886
52       0.0000000000       2.4709474163      13.4606951309
17       0.0000000000       0.0000000000      10.0467886774
