CRYSTAL
PRIMVEC 1
      4.3906838389       0.0000000000       0.0000000000
     -2.1953419196       3.8024437446       0.0000000000
      0.0000000000       0.0000000000      23.8973109889
PRIMCOORD 1
3 1
52      -0.0000000001       2.5349624965      13.8620482378
83       0.0000000000       0.0000000000      12.1396943448
53       2.1953419195       1.2674812483      10.0545154325
