CRYSTAL
PRIMVEC 1
      2.5093001786       0.0000000000       0.0000000000
     -1.2546500893       2.1731177004       0.0000000000
      0.0000000000       0.0000000000      20.0000000000
PRIMCOORD 1
2 1
5       0.0000000000       1.4487451335      10.0000000000
7       1.2546500894       0.7243725668      10.0000000000
