CRYSTAL
PRIMVEC 1
      3.6234135223      -0.0000000000       0.0000000000
     -1.8117067612       3.1379681588       0.0000000000
      0.0000000000       0.0000000000      24.2448689883
PRIMCOORD 1
5 1
1       1.8117067612       1.0459893862      10.0193519295
8       1.8117067612       1.0459893862      10.9865276829
20       0.0000000000       0.0000000000      12.1224344942
1      -0.0000000000       2.0919787726      14.2255170588
8      -0.0000000000       2.0919787726      13.2583413055
