CRYSTAL
PRIMVEC 1
      3.8291583253       0.0000000000       0.0000000000
      0.0000000000       3.8291583253       0.0000000000
      0.0000000000       0.0000000000      25.2623900008
PRIMCOORD 1
6 1
20       1.9145791627       0.0000000000      11.3342954681
35       0.0000000000       1.9145791627       9.9548896427
20       0.0000000000       1.9145791627      13.9280945326
1       0.0000000000       0.0000000000      12.6311950004
1       1.9145791627       1.9145791627      12.6311950004
35       1.9145791627       0.0000000000      15.3075003581
