CRYSTAL
PRIMVEC 1
      3.9864948799       0.0000000000       0.0000000000
      0.0000000000       3.9864948799       0.0000000000
      0.0000000000       0.0000000000      25.4263688575
PRIMCOORD 1
6 1
20       0.0000000000       1.9932474400      13.9435175227
53       1.9932474400       0.0000000000      15.6013315122
20       1.9932474400       0.0000000000      11.4828513349
1       0.0000000000       0.0000000000      12.7131844288
1       1.9932474400       1.9932474400      12.7131844288
53       0.0000000000       1.9932474400       9.8250373453
