CRYSTAL
PRIMVEC 1
      4.4877726890      -0.0000000000       0.0000000000
     -2.2438863445       3.8865251551       0.0000000000
      0.0000000000       0.0000000000      23.5642492454
PRIMCOORD 1
3 1
53       2.2438863446       1.2955083850      13.5778971419
20       0.0000000000      -0.0000000000      11.7821246227
53      -0.0000000000       2.5910167700       9.9863521035
