CRYSTAL
PRIMVEC 1
      3.5698799123       0.0000000000       0.0000000000
     -1.7849399561       3.0916066925       0.0000000000
      0.0000000000       0.0000000000      24.1669234369
PRIMCOORD 1
5 1
1       1.7849399561       1.0305355641      10.0140914293
8       1.7849399561       1.0305355641      10.9826631087
48       0.0000000000       0.0000000000      12.0834617185
1      -0.0000000000       2.0610711284      14.1528320076
8      -0.0000000000       2.0610711284      13.1842603281
