CRYSTAL
PRIMVEC 1
      4.0074265411       0.0000000000       0.0000000000
     -2.0037132705       3.4705331885       0.0000000000
      0.0000000000       0.0000000000      23.1765732999
PRIMCOORD 1
3 1
35       0.0000000000       2.3136887922      13.1933323557
48       2.0037132705       1.1568443961      11.5882866498
35       2.0037132705       3.4705331884       9.9832409442
