CRYSTAL
PRIMVEC 1
      3.8845361837      -0.0000000000       0.0000000000
     -1.9422680920       3.3641070171       0.0000000000
      0.0000000000       0.0000000000      22.8876628797
PRIMCOORD 1
3 1
17       1.9422680918       1.1213690057       9.9906808278
48      -0.0000000001       2.2427380115      11.4438314398
17       1.9422680917       3.3641070171      12.8969820519
