CRYSTAL
PRIMVEC 1
      3.3088641348       0.0000000000       0.0000000000
      0.0000000000       3.8815502578       0.0000000000
      0.0000000000       0.0000000000      21.9060284476
PRIMCOORD 1
6 1
24       0.8272160338      -2.9111955521      -0.8389410037
35      -0.8272160338      -2.9113234141      -2.6955944893
8       0.8272160338      -0.9704129260      -0.3935820285
24      -0.8272160338      -0.9703547057       0.8389410037
35       0.8272160338      -0.9702268436       2.6955944893
8      -0.8272160338      -2.9111373317       0.3935820285
