CRYSTAL
PRIMVEC 1
      3.2102647134       0.0000000000       0.0000000000
      0.0000000000       3.8810204302       0.0000000000
      0.0000000000       0.0000000000      21.6400675505
PRIMCOORD 1
6 1
24      -0.8025661784      -0.9702316875       0.8550577838
24       0.8025661784      -2.9107887428      -0.8550577838
17       0.8025661784      -0.9701871093       2.5542443517
17      -0.8025661784      -2.9108333210      -2.5542443517
8       0.8025661784      -0.9702739315      -0.4078302609
8      -0.8025661784      -2.9107464988       0.4078302609
