CRYSTAL
PRIMVEC 1
      3.5458395133       0.0000000000       0.0000000000
      0.0000000000       4.7355769083       0.0000000000
      0.0000000000       0.0000000000      22.3388464637
PRIMCOORD 1
6 1
24       0.8864598783      -1.1838942271      -1.0314822913
16       0.8864598783      -3.5516826813      -0.5668742597
35      -0.8864598783      -1.1838942271      -2.8298230635
24      -0.8864598783      -3.5516826813       1.0314822913
16      -0.8864598783      -1.1838942271       0.5668742597
35       0.8864598783      -3.5516826813       2.8298230635
