CRYSTAL
PRIMVEC 1
      3.8624237614       0.0000000000       0.0000000000
      0.0000000000       3.8624237614       0.0000000000
      0.0000000000       0.0000000000      23.2479556249
PRIMCOORD 1
4 1
35       1.9312118806       0.0000000000      10.0035694577
29       0.0000000000       0.0000000000      11.6239778125
29       1.9312118806       1.9312118806      11.6239778125
35       0.0000000000       1.9312118806      13.2443861672
