CRYSTAL
PRIMVEC 1
      4.1144723120      -0.2213538825       0.0000000000
     -0.2570324824       4.1118373349       0.0000000000
      0.0000000000       0.0000000000      23.4357273422
PRIMCOORD 1
4 1
53       0.8675551518       0.8751654815      13.4079141811
29       2.8907431720       0.9912958428      11.7177116752
29       0.9666966576       2.8991876096      11.7180156671
53       2.9898846777       3.0153179708      10.0278131612
