CRYSTAL
PRIMVEC 1
      4.1618753650      -0.0000000000       0.0000000000
     -2.0809376825       3.6042897935       0.0000000000
      0.0000000000       0.0000000000      23.9157613166
PRIMCOORD 1
4 1
29       0.0000000000       0.0000000000      11.2628786470
29       2.0809376825       1.2014299313      12.6528623815
53       0.0000000000       0.0000000000      13.8702631387
53       2.0809376825       1.2014299313      10.0454981779
