CRYSTAL
PRIMVEC 1
      3.7361436195      -2.1774073427       0.0000000000
      3.7361436195       2.1774073427       0.0000000000
      0.0000000000       0.0000000000      24.7540676713
PRIMCOORD 1
6 1
29       5.9652197619       0.0000000000      12.9793771748
29       3.4326804823       0.0000000000      13.6392327583
52       0.9220835955       0.0000000000      14.4499227091
29       1.5070674770      -0.0000000000      11.7746904965
29       4.0396067567      -0.0000000000      11.1148349130
52       6.5502036435       0.0000000000      10.3041449622
