CRYSTAL
PRIMVEC 1
      3.7318997306       1.6646579970       0.0000000000
     -3.7319042605       1.6646675902       0.0000000000
      0.0000000000       0.0000000000      17.5192863217
PRIMCOORD 1
3 1
17       4.8377201629      -0.8323394087       1.3696269243
29       1.8659521303      -0.8323337952       0.0000000000
17      -1.1058159022      -0.8323281815      -1.3696269243
