CRYSTAL
PRIMVEC 1
      4.1097893551       0.0000000000       0.0000000000
     -2.0548946776       3.5591819857       0.0000000000
      0.0000000000       0.0000000000      28.3570216207
PRIMCOORD 1
6 1
52      -0.0000000000       2.3727879905      18.3310359823
31       2.0548946775       1.1863939952      11.3056435459
32       2.0548946775       1.1863939952      13.7759998401
31       0.0000000000       0.0000000000      17.0513780747
32       0.0000000000       0.0000000000      14.5810217805
52      -0.0000000000       2.3727879905      10.0259856384
