CRYSTAL
PRIMVEC 1
      3.6332151099       0.0000000000       0.0000000000
     -1.8166075549       3.1464565826       0.0000000000
      0.0000000000       0.0000000000      24.6227072001
PRIMCOORD 1
4 1
31       1.8166075549       1.0488188609      13.5466858540
31       1.8166075549       1.0488188609      11.0760213462
16       0.0000000000       2.0976377216      14.6303052224
16       0.0000000000       2.0976377216       9.9924019777
