CRYSTAL
PRIMVEC 1
      3.8179527967       0.0000000000       0.0000000000
     -1.9089763983       3.3064441124       0.0000000000
      0.0000000000       0.0000000000      24.7928744463
PRIMCOORD 1
4 1
31       0.0000000001       2.2042960749      11.1622652762
31       0.0000000001       2.2042960749      13.6306091701
34       1.9089763984       1.1021480375       9.9894664684
34       1.9089763984       1.1021480375      14.8034079779
