CRYSTAL
PRIMVEC 1
      3.6413323098       0.0000000000       0.0000000000
     -1.8206661550       3.1534862840       0.0000000000
      0.0000000000       0.0000000000      24.6414209227
PRIMCOORD 1
4 1
31       0.0000000000       2.1023241894      13.5535015946
16       1.8206661550       1.0511620947      10.0081663247
16       0.0000000001       0.0000000000      14.6332558018
31       0.0000000001       2.1023241894      11.0879181241
