CRYSTAL
PRIMVEC 1
      4.0811050385       0.0000000000       0.0000000000
      0.0000000000       5.9835907430       0.0000000000
      0.0000000000       0.0000000000      25.0950819527
PRIMCOORD 1
6 1
31       0.0000000000       0.0917769094      13.4676127341
31       2.0405525193       3.0835525995      11.6274833795
52       0.0000000000       1.3885971353      11.1564305422
52       2.0405525193       4.3804195408      13.9386435076
17       0.0000000000       1.4338452503      15.2072264904
17       2.0405525193       4.4256250573       9.8878703811
