CRYSTAL
PRIMVEC 1
      3.6779980129       0.0000000000       0.0000000000
      0.0000000000       4.3745591444       0.0000000000
      0.0000000000       0.0000000000      22.6805798486
PRIMCOORD 1
4 1
32       0.9194995033       3.8352248040      12.6171561590
32       2.7584985098       1.6488470617      10.0634754393
16       2.7584985098       2.1870160232      12.4230272001
16       0.9194995033       4.3751557221      10.2575037490
