CRYSTAL
PRIMVEC 1
      4.1372123676       0.0000000000       0.0000000000
     -2.0686061838       3.5829310113       0.0000000000
      0.0000000000       0.0000000000      23.8713139479
PRIMCOORD 1
3 1
53       2.0686061839       1.1943103371      13.8626724824
32       0.0000000000       0.0000000000      11.9356569740
53       2.0686061839       1.1943103371      10.0086414655
