CRYSTAL
PRIMVEC 1
      4.2630842615       0.0000000000       0.0000000000
     -2.1315421307       3.6919392689       0.0000000000
      0.0000000000       0.0000000000      23.5470600462
PRIMCOORD 1
3 1
53       0.0000000000       2.4612928459      10.0075648327
32       0.0000000000       0.0000000000      11.7735300231
53       2.1315421307       1.2306464230      13.5394952135
