CRYSTAL
PRIMVEC 1
      3.6174425727       0.0000000000       0.0000000000
     -1.8087212865       3.1327971647       0.0000000000
      0.0000000000       0.0000000000      26.6203579789
PRIMCOORD 1
6 1
72       1.8087212863       1.0442657215      14.6000414942
7       1.8087212863       1.0442657215      12.4447315948
35       1.8087212862       3.1327971646      16.5919115639
35       1.8087212862       3.1327971646      10.0284464150
72      -0.0000000002       2.0885314431      12.0203164848
7      -0.0000000002       2.0885314431      14.1756263842
