CRYSTAL
PRIMVEC 1
      3.6980850072       0.0000000000       0.0000000000
     -1.8490425038       3.2026355616       0.0000000000
      0.0000000000       0.0000000000      27.0141502904
PRIMCOORD 1
6 1
72       1.8490425036       1.0675451872      14.7713837178
7       1.8490425036       1.0675451872      12.6366192372
53       0.0000000001       0.0000000001      16.9853599474
53       0.0000000001       0.0000000001      10.0287903429
72       0.0000000000       2.1350903745      12.2427665726
7       0.0000000000       2.1350903745      14.3775310533
