CRYSTAL
PRIMVEC 1
      3.5684190879       0.0000000000       0.0000000000
      0.0000000000       4.1208979269       0.0000000000
      0.0000000000       0.0000000000      25.9225975890
PRIMCOORD 1
6 1
72       0.0000000000       2.0604489636      12.1033507967
35       1.7842095440       2.0604489636      10.0128528092
7       0.0000000000       0.0000000000      12.6561802917
72       1.7842095440       0.0000000000      13.8192466877
35       0.0000000000       0.0000000000      15.9097565576
7       1.7842095440       2.0604489636      13.2664233550
