CRYSTAL
PRIMVEC 1
      3.5777572792       0.0000000000       0.0000000000
     -1.7888786396       3.0984286923       0.0000000000
      0.0000000000       0.0000000000      26.2936528976
PRIMCOORD 1
6 1
72       0.0000000000       2.0656191282      14.4483176672
7       0.0000000000       2.0656191282      12.2853269240
17       1.7888786396       3.0984286922      10.0264908712
17       1.7888786396       3.0984286922      16.2671620264
72       1.7888786396       1.0328095640      11.8453352303
7       1.7888786396       1.0328095640      14.0083259736
