CRYSTAL
PRIMVEC 1
      3.6296494405       0.0000000000       0.0000000000
     -1.8148247205       3.1433686225       0.0000000000
      0.0000000000       0.0000000000      22.9029363442
PRIMCOORD 1
3 1
16      -0.0000000000       2.0955790816       9.9975291463
72       0.0000000000       0.0000000000      11.4514681721
16       1.8148247205       1.0477895408      12.9054071979
