CRYSTAL
PRIMVEC 1
      3.7639566830       0.0000000000       0.0000000000
     -1.8819783414       3.2596821063       0.0000000000
      0.0000000000       0.0000000000      23.1713329631
PRIMCOORD 1
3 1
34       1.8819783415       1.0865607020      13.1591973707
72       0.0000000000       0.0000000000      11.5856664815
34       0.0000000001       2.1731214041      10.0121355924
