CRYSTAL
PRIMVEC 1
      4.4773308507       0.0000000000       0.0000000000
      0.0000000000       4.4773308507       0.0000000000
      0.0000000000       0.0000000000      23.5743938540
PRIMCOORD 1
3 1
53       2.2386654253       0.0000000000      13.5694296497
80       2.2386654253       2.2386654253      11.7871969270
53       0.0000000000       2.2386654253      10.0049642043
