CRYSTAL
PRIMVEC 1
      3.6423769913       0.0000000000       0.0000000000
      0.0000000000       4.1380208074       0.0000000000
      0.0000000000       0.0000000000      26.0506785544
PRIMCOORD 1
6 1
49       1.8211884957       2.0690104037      12.0240266754
35       0.0000000000       2.0690104037      10.0097234259
8       1.8211884957       0.0000000000      12.6916224720
49       0.0000000000       0.0000000000      14.0266467593
35       1.8211884957       0.0000000000      16.0409678124
8       0.0000000000       2.0690104037      13.3590492860
