CRYSTAL
PRIMVEC 1
      4.0659345692       0.0000000000       0.0000000000
     -2.0329672847       3.5212026272       0.0000000000
      0.0000000000       0.0000000000      25.3766779990
PRIMCOORD 1
4 1
49       2.0329672847       1.1737342090      14.0990761723
49       2.0329672847       1.1737342090      11.2776018268
34      -0.0000000001       2.3474684180      15.3872531337
34      -0.0000000001       2.3474684180       9.9894248653
