CRYSTAL
PRIMVEC 1
      3.3991611321      -2.0475416870       0.0000000000
      3.3991611321       2.0475416870       0.0000000000
      0.0000000000       0.0000000000      26.3881668583
PRIMCOORD 1
5 1
49       2.1432273081      -0.1217638173      24.4288898790
34       4.4931851953      -0.0988277322      23.0796470340
49       4.6550949559      -0.1217638173       1.9592769793
34       3.3991611323      -1.5812848718       0.0000000000
34       2.3051370688      -0.0988277322       3.3085198243
