CRYSTAL
PRIMVEC 1
      3.7933380867       0.0000000000       0.0000000000
      0.0000000000       6.2278909270       0.0000000000
      0.0000000000       0.0000000000      22.9293330863
PRIMCOORD 1
6 1
19       1.8966690433       5.1402348875       9.9912169917
81       1.8966690433       0.9829712159      12.8519591068
8       1.8966690433       2.9615397750      11.5578454566
19       0.0000000000       4.1945942103      12.9381106243
81       0.0000000000       2.1239612309      10.0773784503
8       0.0000000000       0.1453889101      11.3714886290
