CRYSTAL
PRIMVEC 1
      6.5773273199       0.0000000000       0.0000000000
      0.0000000000       6.5773273199       0.0000000000
      0.0000000000       0.0000000000      22.7789802121
PRIMCOORD 1
6 1
81       3.2886636599       3.2886636599      11.3894901061
17       5.0649155790       2.3333067810      12.8272379628
17       4.2440205389       5.0649155790       9.9517422493
19       0.0000000000       0.0000000000      11.3894901061
17       1.5124117409       4.2440205389      12.8272379628
17       2.3333067810       1.5124117409       9.9517422494
