CRYSTAL
PRIMVEC 1
      2.0673082001      -3.5806828479       0.0000000000
      4.1346164002       0.0000000000       0.0000000000
      0.0000000000       0.0000000000      26.0367390000
PRIMCOORD 1
4 1
57       2.0673082208      -1.1935612954      24.5413164908
57       4.1346163796      -2.3871215525       1.4954231010
35      -0.0000000000      -0.0000000000       3.4317957381
35       0.0000000000      -0.0000000000      22.6049426702
