CRYSTAL
PRIMVEC 1
      4.4741479912       0.0000000000       0.0000000000
     -2.2370739957       3.8747258207       0.0000000000
      0.0000000000       0.0000000000      27.4978659424
PRIMCOORD 1
5 1
57       2.2370739957       1.2915752736      15.4578197762
57       0.0000000001       2.5831505471      12.0400461662
32       0.0000000000       0.0000000000      13.7489329712
53       2.2370739957       1.2915752736       9.9737727026
53       0.0000000001       2.5831505471      17.5240932398
