CRYSTAL
PRIMVEC 1
      4.1608932269       0.0000000000       0.0000000000
      0.0000000000       4.1608932269       0.0000000000
      0.0000000000       0.0000000000      26.1751252802
PRIMCOORD 1
6 1
57       0.0000000000       2.0804466134      14.2865760026
53       2.0804466134       0.0000000000      16.2198734257
57       2.0804466134       0.0000000000      11.8885492776
53       0.0000000000       2.0804466134       9.9552518545
8       0.0000000000       0.0000000000      13.0875626401
8       2.0804466134       2.0804466134      13.0875626401
