CRYSTAL
PRIMVEC 1
      4.0701193180       0.0000000000       0.0000000000
      0.0000000000       4.0701193180       0.0000000000
      0.0000000000       0.0000000000      25.4721964870
PRIMCOORD 1
6 1
57       2.0350596592       0.0000000000      13.9856272301
35       0.0000000000       2.0350596592      15.6274322526
57       0.0000000000       2.0350596592      11.4865692569
35       2.0350596592       0.0000000000       9.8447642344
8       0.0000000000       0.0000000000      12.7360982435
8       2.0350596592       2.0350596592      12.7360982435
