CRYSTAL
PRIMVEC 1
      2.0729340774      -3.5904271428       0.0000000000
      4.1458681548       0.0000000000       0.0000000000
      0.0000000000       0.0000000000      19.6714414604
PRIMCOORD 1
3 1
57      -0.0000000000      -0.0000000001       0.0000000000
35      -0.0000000000      -2.3936180953       1.9196271019
35      -0.0000000000      -2.3936180953      -1.9196271019
