CRYSTAL
PRIMVEC 1
      3.5666949419       0.0000000000       0.0000000000
      0.0000000000       3.5666949419       0.0000000000
      0.0000000000       0.0000000000      23.6488030055
PRIMCOORD 1
6 1
1       0.0000000000       1.7833474710      13.6317178859
8       0.0000000000       1.7833474710      12.6652529395
3       0.0000000000       0.0000000000      11.8244015027
3       1.7833474710       1.7833474710      11.8244015027
1       1.7833474710       0.0000000000      10.0170851196
8       1.7833474710       0.0000000000      10.9835500660
