CRYSTAL
PRIMVEC 1
      4.3801464577       0.0000000000       0.0000000000
     -2.1900732288       3.7933181048       0.0000000000
      0.0000000000       0.0000000000      24.4260136812
PRIMCOORD 1
4 1
3       0.0000000000       0.0000000000      14.2029250765
52       2.1900732288       1.2644393682      13.8142528000
13       2.1900732288       1.2644393682      11.2686480223
52       0.0000000001       2.5288787364      10.1105331276
