CRYSTAL
PRIMVEC 1
      4.4048051792       0.2396916824       0.0000000000
      0.4085232192       7.2035432201       0.0000000000
      0.0000000000       0.0000000000      23.6588156904
PRIMCOORD 1
6 1
3       0.0178149393       0.3099945540      11.8293394981
79       2.4243661621       4.0315138742      11.8294326650
53       3.8256334032       2.6844521413      13.6529108654
53       1.0230192909       5.3783337839      10.0058274338
53       2.5032744114       6.1997998797      13.3880220327
53       2.3454397625       1.8631867849      10.2709145761
