CRYSTAL
PRIMVEC 1
      2.0470940534      -3.5896768419       0.0000000000
      2.0470940534       3.5896768419       0.0000000000
      0.0000000000       0.0000000000      21.6224824539
PRIMCOORD 1
6 1
3       2.0470940534       1.2442870519      10.8112412269
5       2.0470940534      -1.2083821274      10.8112412269
1       2.4697619266      -1.9058239219       9.8943783211
1       2.9417895612      -0.5207712004      11.2809467393
1       1.1523985456      -0.5207712004      10.3415357146
1       1.6244261802      -1.9058239219      11.7281041328
