CRYSTAL
PRIMVEC 1
      3.6076619350       0.0000000000       0.0000000000
     -1.8038309675       3.1243268839       0.0000000000
      0.0000000000       0.0000000000      26.1040505564
PRIMCOORD 1
5 1
71       1.8038309675       1.0414422947      11.7515199866
17       1.8038309675       1.0414422947      16.0912203290
6       0.0000000001       0.0000000001      13.0520252782
71       0.0000000001       2.0828845894      14.3525305698
17       0.0000000001       2.0828845894      10.0128302274
