CRYSTAL
PRIMVEC 1
      3.7635025020       0.0000000000       0.0000000000
      0.0000000000       3.7635025020       0.0000000000
      0.0000000000       0.0000000000      25.4699963194
PRIMCOORD 1
6 1
71       1.8817512510       0.0000000000      13.8681487838
71       0.0000000000       1.8817512510      11.6018475356
35       0.0000000000       1.8817512510      15.5607337092
35       1.8817512510       0.0000000000       9.9092626102
8       0.0000000000       0.0000000000      12.7349981597
8       1.8817512510       1.8817512510      12.7349981597
