CRYSTAL
PRIMVEC 1
      3.8810234864       0.0000000000       0.0000000000
      0.0000000000       3.8810234864       0.0000000000
      0.0000000000       0.0000000000      25.9872252558
PRIMCOORD 1
6 1
71       1.9405117432       0.0000000000      14.0697450430
71       0.0000000000       1.9405117432      11.9174802126
53       0.0000000000       1.9405117432      15.9893356278
53       1.9405117432       0.0000000000       9.9978896280
8       0.0000000000       0.0000000000      12.9936126278
8       1.9405117432       1.9405117432      12.9936126278
