CRYSTAL
PRIMVEC 1
      3.1758788836      -0.0000000000       0.0000000000
     -1.5879394418       2.7503917926       0.0000000000
      0.0000000000       0.0000000000      24.0287995630
PRIMCOORD 1
5 1
1       0.0000000000       1.8335945284      10.0118262396
8       0.0000000000       1.8335945284      10.9761168534
12      -0.0000000000      -0.0000000000      12.0143997815
1       1.5879394419       0.9167972642      14.0169733234
8       1.5879394419       0.9167972642      13.0526827095
