CRYSTAL
PRIMVEC 1
      3.8663051894       0.0000000000       0.0000000000
     -1.9331525948       3.3483185129       0.0000000000
      0.0000000000       0.0000000000      23.0381639498
PRIMCOORD 1
3 1
35       0.0000000000       2.2322123419      13.0317121028
12      -0.0000000000      -0.0000000000      11.5190819749
35       1.9331525948       1.1161061710      10.0064518470
