CRYSTAL
PRIMVEC 1
      3.6453315763       0.0000000000       0.0000000000
     -1.8226657882       3.1569497503       0.0000000000
      0.0000000000       0.0000000000      22.7262264347
PRIMCOORD 1
3 1
12       1.8226657881       1.0523165835      11.3631139709
17       1.8226657881       3.1569497503      12.7450687782
17       0.0000000000       2.1046331669       9.9811569030
