CRYSTAL
PRIMVEC 1
      4.1535350098       0.0000000000       0.0000000000
     -2.0767675048       3.5970668340       0.0000000000
      0.0000000000       0.0000000000      23.3742955077
PRIMCOORD 1
3 1
53      -0.0000000000       2.3980445559       9.9844716731
12       0.0000000000       0.0000000000      11.6871477539
53       2.0767675048       1.1990222780      13.3898238346
