CRYSTAL
PRIMVEC 1
      3.1867374979       0.0000000000       0.0000000000
     -1.5933687489       2.7597956285       0.0000000000
      0.0000000000       0.0000000000      23.1892369035
PRIMCOORD 1
3 1
42       0.0000000000       1.8398637524      11.5946151394
16       0.0000000000       0.0000000000      13.1833034026
16       1.5933687489       0.9199318762      10.0059368132
