CRYSTAL
PRIMVEC 1
      3.1881795204       0.0000000000       0.0000000000
     -1.5940897602       2.7610444565       0.0000000000
      0.0000000000       0.0000000000      23.1547020881
PRIMCOORD 1
3 1
42       0.0000000000       1.8406963043      11.5773510440
16       1.5940897602       0.9203481522      10.0188259936
16       1.5940897602       0.9203481522      13.1358760945
