CRYSTAL
PRIMVEC 1
      3.5653929348       0.0000000000       0.0000000000
     -1.7826964674       3.0877208560       0.0000000000
      0.0000000000       0.0000000000      23.6401794724
PRIMCOORD 1
3 1
52       1.7826964674       1.0292402853      10.0076846093
52       1.7826964674       1.0292402853      13.6326521587
42       0.0000000000       2.0584805707      11.8201703796
