CRYSTAL
PRIMVEC 1
      3.4015818787       0.0000000000       0.0000000000
      0.0000000000       3.4204448197       0.0000000000
      0.0000000000       0.0000000000      24.6073663945
PRIMCOORD 1
6 1
11       0.8504692473       1.7102224098      13.3179892729
1       0.8504079562       1.7102224098       9.9998761750
8       0.8503288418       1.7102224098      10.9688951946
11       2.5511314767       3.4204448197      11.2893758474
1       2.5511922299       3.4204448197      14.6074733233
8       2.5512837280       0.0000000000      13.6384893703
