CRYSTAL
PRIMVEC 1
      3.5643936280       0.0000000000       0.0000000000
      0.0000000000       4.7173301201       0.0000000000
      0.0000000000       0.0000000000      20.0000000000
PRIMCOORD 1
3 1
11       0.0000000000       1.3487662927      10.0000000000
6       1.7821968140       4.1607308177      10.0000000000
7       1.7821968140       2.9848065530      10.0000000000
