CRYSTAL
PRIMVEC 1
      1.8401157540      -3.1871718226       0.0000000000
      1.8401138876       3.1871707451       0.0000000000
      0.0000000000       0.0000000000      17.6742564869
PRIMCOORD 1
3 1
35       0.9200566208      -0.5311949377      -1.4109401842
28       0.9200569438       1.5935853726       0.0000000000
35       2.7601730208       0.5311938601       1.4109401842
