CRYSTAL
PRIMVEC 1
      1.7439078029      -3.0205369184       0.0000000000
      1.7439078029       3.0205369184       0.0000000000
      0.0000000000       0.0000000000      17.2806826940
PRIMCOORD 1
3 1
28       0.8719539015      -1.5102684592       0.0000000000
17      -0.8719539015      -0.5034228198      -1.3092211417
17       0.8719539015       0.5034228198       1.3092211417
