CRYSTAL
PRIMVEC 1
      1.9780922660      -3.4261639157       0.0000000000
      1.9780988554       3.4261677201       0.0000000000
      0.0000000000       0.0000000000      18.1096439184
PRIMCOORD 1
3 1
53       0.9890139529      -0.5710074719      -1.5105165243
53       2.9671771686       0.5710112763       1.5105165243
28       0.9890494277       1.7130838600       0.0000000000
