CRYSTAL
PRIMVEC 1
      2.8242033451       0.0000000000       0.0000000000
     -1.4121016725       2.4458318423       0.0000000000
      0.0000000000       0.0000000000      21.8824530565
PRIMCOORD 1
3 1
8       1.4121016725       0.8152772808      10.0006291225
28       0.0000000000       0.0000000000      10.9412265283
8      -0.0000000000       1.6305545616      11.8818239340
