CRYSTAL
PRIMVEC 1
      3.2842751568       0.0000000000       0.0000000000
     -1.6421375787       2.8442657190       0.0000000000
      0.0000000000       0.0000000000      21.2509982348
PRIMCOORD 1
2 1
15       1.6421375783       0.9480885730      10.0062195816
15      -0.0000000001       1.8961771461      11.2447786532
