CRYSTAL
PRIMVEC 1
      3.3054656990       0.0000000000       0.0000000000
      0.0000000000       4.6143426699       0.0000000000
      0.0000000000       0.0000000000      22.1833103733
PRIMCOORD 1
4 1
15       1.6527328495       4.2063485919      10.0365591106
15       1.6527328495       0.4079940780      12.1467512626
15       3.3054656990       2.7151651565      10.0365591059
15       3.3054656990       1.8991775134      12.1467512674
