CRYSTAL
PRIMVEC 1
      4.1070895444       0.0000000000       0.0000000000
      0.0000000000       4.1070895444       0.0000000000
      0.0000000000       0.0000000000      25.4031884696
PRIMCOORD 1
6 1
82       0.0000000000       2.0535447722      14.2359700506
35       2.0535447722       0.0000000000      15.6170562738
82       2.0535447722       0.0000000000      11.1672184191
35       0.0000000000       2.0535447722       9.7861321958
9       0.0000000000       0.0000000000      12.7015942348
9       2.0535447722       2.0535447722      12.7015942348
