CRYSTAL
PRIMVEC 1
      4.0271991521       0.0000000000       0.0000000000
      0.0000000000       4.0271991521       0.0000000000
      0.0000000000       0.0000000000      25.1594826758
PRIMCOORD 1
6 1
82       0.0000000000       2.0135995761      14.1412785714
17       2.0135995761       0.0000000000      15.3143415011
82       2.0135995761       0.0000000000      11.0182041044
17       0.0000000000       2.0135995761       9.8451411747
9       2.0135995761       2.0135995761      12.5797413379
9       0.0000000000       0.0000000000      12.5797413379
