CRYSTAL
PRIMVEC 1
      4.2074081901       0.0000000000       0.0000000000
      0.0000000000       4.2074081901       0.0000000000
      0.0000000000       0.0000000000      26.0670814270
PRIMCOORD 1
6 1
82       0.0000000000       2.1037040950      14.5309457802
53       2.1037040950       0.0000000000      16.1877031208
82       2.1037040950       0.0000000000      11.5361356467
53       0.0000000000       2.1037040950       9.8793783062
9       2.1037040950       2.1037040950      13.0335407135
9       0.0000000000       0.0000000000      13.0335407135
