CRYSTAL
PRIMVEC 1
      4.0633545946       0.0000000000       0.0000000000
      0.0000000000       4.0633545946       0.0000000000
      0.0000000000       0.0000000000      22.3993742628
PRIMCOORD 1
4 1
82       0.0000000000       2.0316772974      12.3946675061
82       2.0316772974       0.0000000000      10.0047067567
8       0.0000000000       0.0000000000      11.1996871314
8       2.0316772974       2.0316772974      11.1996871314
