CRYSTAL
PRIMVEC 1
      4.4068812504       0.0000000000       0.0000000000
      0.0000000000       4.4068812504       0.0000000000
      0.0000000000       0.0000000000      24.0751078051
PRIMCOORD 1
5 1
9       2.2034406252       2.2034406252      10.0520007554
82       2.2034406252       2.2034406252      12.0375539025
9       2.2034406252       2.2034406252      14.0231070497
9       0.0000000000       2.2034406252      12.0375539025
9       2.2034406252       0.0000000000      12.0375539025
