CRYSTAL
PRIMVEC 1
      4.6448345541       0.0000000000       0.0000000000
     -2.3224172771       4.0225447202       0.0000000000
      0.0000000000       0.0000000000      23.9017857947
PRIMCOORD 1
3 1
53       2.3224172770       1.3408482400      13.8276933056
82       2.3224172769       4.0225447202      11.9508928973
53      -0.0000000001       2.6816964801      10.0740924891
