CRYSTAL
PRIMVEC 1
      4.2609693940       0.0000000000       0.0000000000
     -2.1304846970       3.6901077400       0.0000000000
      0.0000000000       0.0000000000      21.6139750069
PRIMCOORD 1
2 1
52       0.0000000000       2.4600718268      11.6801654065
82       0.0000000000       0.0000000000       9.9338096004
