CRYSTAL
PRIMVEC 1
      4.2489713293      -0.0000140636       0.0000000000
     -0.0000197923       6.3273815990       0.0000000000
      0.0000000000       0.0000000000      22.6937055919
PRIMCOORD 1
6 1
17       2.8837875877       6.4544352210      10.0658582260
17       3.4895266757       3.2904619721      10.0657285808
46       0.0001238226       1.5055011971      11.3468758181
46       2.1246029603       4.6690053252      11.3468297973
17       0.7593733482       6.0474528234      12.6278612753
17       1.3650793490       2.8839968909      12.6279630780
