CRYSTAL
PRIMVEC 1
      5.4628581755       0.0000000000       0.0000000000
      0.0000000000       5.5673079556       0.0000000000
      0.0000000000       0.0000000000      21.2451023148
PRIMCOORD 1
6 1
46       2.7314290877       0.0000000000      10.6225511574
46       0.0000000000       2.7836539778      10.6225511574
16       0.5704118934       0.6208674801       9.9845577346
16       3.3018409811       2.1627864977      11.2605445802
16       4.8924462821       4.9464404755      11.2605445802
16       2.1610171943       3.4045214579       9.9845577346
