CRYSTAL
PRIMVEC 1
      3.1500880387       0.0000000000       0.0000000000
     -1.5750440194       2.7280562657       0.0000000000
      0.0000000000       0.0000000000      21.8927076652
PRIMCOORD 1
3 1
8       1.5750440194       0.9093520887      11.8907402315
78       0.0000000000       0.0000000000      10.9463538326
8       0.0000000000       1.8187041771      10.0019674337
