CRYSTAL
PRIMVEC 1
      3.5561111388      -0.0000000000       0.0000000000
     -1.7780555695       3.0796825851       0.0000000000
      0.0000000000       0.0000000000      22.4715661356
PRIMCOORD 1
3 1
16      -0.0000000000       2.0531217232       9.9993475722
78       0.0000000000      -0.0000000000      11.2357830678
16       1.7780555695       1.0265608617      12.4722185634
