CRYSTAL
PRIMVEC 1
      3.7120399428       0.0000000000       0.0000000000
     -1.8560199713       3.2147208904       0.0000000000
      0.0000000000       0.0000000000      22.5569347585
PRIMCOORD 1
3 1
34       0.0000000000       2.1431472602      12.6113301685
78      -0.0000000000      -0.0000000000      11.2784673792
34       1.8560199714       1.0715736301       9.9456045900
