CRYSTAL
PRIMVEC 1
      6.4546568995       0.0000000000       0.0000000000
      0.0000000000       6.4546568995       0.0000000000
      0.0000000000       0.0000000000      20.0397130271
PRIMCOORD 1
4 1
17       0.0000000000       3.2273284497      10.2547641227
37       0.0000000000       0.0000000000      10.0198565135
37       3.2273284497       3.2273284497      10.0198565135
17       3.2273284497       0.0000000000       9.7849489044
