CRYSTAL
PRIMVEC 1
      3.6841743102       0.0000000000       0.0000000000
      0.0000000000       6.6010273558       0.0000000000
      0.0000000000       0.0000000000      22.6548037443
PRIMCOORD 1
6 1
52       1.8420871551       4.9020960712       9.9785596817
45       1.8420871551       0.5144631188      11.3367671278
17       1.8420871551       2.6008913493      12.7264944560
52       0.0000000000       5.9095395384      12.6762400307
45       0.0000000000       3.6961767138      11.3180185917
17       0.0000000000       1.6096742406       9.9283313450
