CRYSTAL
PRIMVEC 1
      3.5728623174       0.0000000000       0.0000000000
      0.0000000000       3.6793641367       0.0000000000
      0.0000000000       0.0000000000      23.2006600697
PRIMCOORD 1
4 1
17       3.5728623174       1.8396820684       9.9852446934
44       1.7864311587       1.8396820684      11.6003300349
17       0.0000000000       1.8396820684      13.2154153763
8       1.7864311587       0.0000000000      11.6003300349
