CRYSTAL
PRIMVEC 1
      4.3131148106       0.0000000000       0.0000000000
     -2.1565574053       3.7352669955       0.0000000000
      0.0000000000       0.0000000000      27.4925488549
PRIMCOORD 1
5 1
51       0.0000000000       2.4901779971      11.7439104113
52       0.0000000000       2.4901779971      17.4532868563
51       0.0000000000       0.0000000001      15.7486384436
52       0.0000000000       0.0000000001      10.0392619986
52       2.1565574053       1.2450889986      13.7462744276
