CRYSTAL
PRIMVEC 1
      4.1446016952       0.0000000000       0.0000000000
     -2.0723008477       3.5893303566       0.0000000000
      0.0000000000       0.0000000000      27.0867692555
PRIMCOORD 1
5 1
34       2.0723008477       1.1964434523      13.4165656478
51       0.0000000002       0.0000000001      15.2629449082
34       0.0000000002       0.0000000001      10.0397059723
51       0.0000000002       2.3928869045      11.5422583165
52       0.0000000002       2.3928869045      17.0523056014
