CRYSTAL
PRIMVEC 1
      4.2295932721       0.0000000000       0.0000000000
     -2.1147966361       3.6629352214       0.0000000000
      0.0000000000       0.0000000000      27.0848252969
PRIMCOORD 1
5 1
51       0.0000000000       2.4419568143      11.7294198426
52       0.0000000000       2.4419568143      17.0981420921
51       0.0000000000       0.0000000000      15.3554054543
52      -2.1147966361       3.6629352214       9.9866832048
34       2.1147966361       1.2209784071      13.5424126485
