CRYSTAL
PRIMVEC 1
      4.1486245965       0.0000000000       0.0000000000
     -2.0743122983       3.5928142914       0.0000000000
      0.0000000000       0.0000000000      27.2732782578
PRIMCOORD 1
5 1
51       2.0743122983       1.1976047638      15.7194417315
34       2.0743122983       1.1976047638      10.0483303516
51       0.0000000000       0.0000000000      11.5538365264
52       0.0000000000       2.3952095275      13.6366391291
34       0.0000000000       0.0000000000      17.2249479062
