CRYSTAL
PRIMVEC 1
      3.4418335835       0.0000000000       0.0000000000
     -1.7209167919       2.9807153189       0.0000000000
      0.0000000000       0.0000000000      25.7743889097
PRIMCOORD 1
5 1
21       0.0000000000       1.9871435460      11.6535542289
21       1.7209167919       0.9935717730      14.1208346807
6       0.0000000000       0.0000000000      12.8871944548
17       0.0000000000       1.9871435460      15.7912810471
17       1.7209167919       0.9935717730       9.9831078626
