CRYSTAL
PRIMVEC 1
      3.5699789084       0.0000000000       0.0000000000
      0.0000000000       3.9829810668       0.0000000000
      0.0000000000       0.0000000000      25.8541491432
PRIMCOORD 1
6 1
21       1.7849894542       0.0000000000      12.0028945198
21       0.0000000000       1.9914905335      13.8512579350
35       0.0000000000       0.0000000000      10.0101945938
35       1.7849894542       1.9914905335      15.8439542991
8       1.7849894542       1.9914905335      12.6500774634
8       0.0000000000       0.0000000000      13.2040779975
