CRYSTAL
PRIMVEC 1
      3.8901956037       0.0000000000       0.0000000000
     -1.9450978019       3.3690082185       0.0000000000
      0.0000000000       0.0000000000      23.7135487142
PRIMCOORD 1
4 1
14       1.9450978019       1.1230027395      11.4974678033
14       0.0000000000       2.2460054790      12.2160809110
1       1.9450978019       1.1230027395       9.9958012128
1       0.0000000000       2.2460054790      13.7177475014
