CRYSTAL
PRIMVEC 1
      3.8519982476       0.0000000000       0.0000000000
      0.0000000000       3.8519982476       0.0000000000
      0.0000000000       0.0000000000      22.3347663658
PRIMCOORD 1
4 1
50       1.9259991238       0.0000000000      12.3455276338
50       0.0000000000       1.9259991238       9.9892387320
8       0.0000000000       0.0000000000      11.1673831829
8       1.9259991238       1.9259991238      11.1673831829
