CRYSTAL
PRIMVEC 1
      3.5564995940      -0.0921622236       0.0000000000
     -0.5462857770       3.5155021183       0.0000000000
      0.0000000000       0.0000000000      22.8041829791
PRIMCOORD 1
4 1
50       3.2596021084       0.1689060184      10.0163394360
50       1.7963099632       1.4556089260      12.7878713880
8       3.3914005865       0.0530128014      12.1729430758
8       1.6645081373       1.5715051080      10.6312724185
