CRYSTAL
PRIMVEC 1
      4.5416959671       0.0000416612       0.0000000000
     -0.0000148394       4.5794446000       0.0000000000
      0.0000000000       0.0000000000      23.1353731648
PRIMCOORD 1
4 1
50       1.1350161183       1.9873318144      10.2369621136
50       3.4062975104       4.2769078848      12.8984168378
52       1.1351394710       2.1112871021      13.1606104505
52       3.4061814067       4.4007551245       9.9747474277
