CRYSTAL
PRIMVEC 1
      4.1759309114       0.0000000000       0.0000000000
      0.0000000000       4.1759309114       0.0000000000
      0.0000000000       0.0000000000      23.8456466502
PRIMCOORD 1
5 1
9       2.0879654556       2.0879654556      13.8145628731
50       2.0879654556       2.0879654556      11.9228233251
9       2.0879654556       2.0879654556      10.0310837771
9       2.0879654556       4.1759309114      11.9228233251
9       0.0000000000       2.0879654556      11.9228233251
