CRYSTAL
PRIMVEC 1
      3.8549728042       0.0000000000       0.0000000000
     -1.9274864021       3.3385043794       0.0000000000
      0.0000000000       0.0000000000      23.2095437301
PRIMCOORD 1
3 1
34       1.9274864021       1.1128347931       9.9988580777
50       0.0000000000       0.0000000000      11.6047718650
34       0.0000000000       2.2256695863      13.2106856524
