CRYSTAL
PRIMVEC 1
      4.1094097458       0.0000000000       0.0000000000
      0.0000000000       4.1094097458       0.0000000000
      0.0000000000       0.0000000000      25.2078167054
PRIMCOORD 1
6 1
38       2.0547048729       0.0000000000      14.0342467071
35       0.0000000000       2.0547048729      15.4479650829
38       0.0000000000       2.0547048729      11.1735699983
35       2.0547048729       0.0000000000       9.7598516225
9       0.0000000000       0.0000000000      12.6039083527
9       2.0547048729       2.0547048729      12.6039083527
