CRYSTAL
PRIMVEC 1
      4.0955506522       0.0000000000       0.0000000000
      0.0000000000       4.0955506522       0.0000000000
      0.0000000000       0.0000000000      25.0283080372
PRIMCOORD 1
6 1
38       0.0000000000       2.0477753261      13.9199643165
35       2.0477753261       0.0000000000      15.2721444988
38       2.0477753261       0.0000000000      11.1083437205
1       0.0000000000       0.0000000000      12.5141540185
1       2.0477753261       2.0477753261      12.5141540185
35       0.0000000000       2.0477753261       9.7561635384
