CRYSTAL
PRIMVEC 1
      4.2921496716       0.0000000000       0.0000000000
      0.0000000000       4.2921496716       0.0000000000
      0.0000000000       0.0000000000      25.4594463213
PRIMCOORD 1
6 1
38       0.0000000000       2.1460748358      14.0316446486
53       2.1460748358       0.0000000000      15.5846861997
38       2.1460748358       0.0000000000      11.4278016728
1       0.0000000000       0.0000000000      12.7297231607
1       2.1460748358       2.1460748358      12.7297231607
53       0.0000000000       2.1460748358       9.8747601216
