CRYSTAL
PRIMVEC 1
      4.7464820888       0.0000000000       0.0000000000
      0.0000000000       8.2198127756       0.0000000000
      0.0000000000       0.0000000000      23.5173566099
PRIMCOORD 1
6 1
38       1.1866205222       3.0404170515      11.0249534336
38       3.5598615666       7.1503783074      12.4927276434
53       1.1866205222       5.1105435102      13.6223328477
53       3.5598615666       1.0006162241       9.8953327268
53       3.5598615666       5.0791333283       9.8935179561
53       1.1866205222       0.9692498973      13.6241844639
