CRYSTAL
PRIMVEC 1
      3.2731880139       0.0000000000       0.0000000000
      0.0000000000       3.9533439905       0.0000000000
      0.0000000000       0.0000000000      25.1849575755
PRIMCOORD 1
6 1
22       1.6365940070       0.0000000000      11.8217250482
7       1.6365940070       1.9766719953      12.2178672777
17       0.0000000000       0.0000000000       9.9772251802
22       0.0000000000       1.9766719953      13.3632327772
7       0.0000000000       0.0000000000      12.9670905863
17       1.6365940070       1.9766719953      15.2077331138
