CRYSTAL
PRIMVEC 1
      3.3699845896       0.0000000000       0.0000000000
      0.0000000000       3.9512724954       0.0000000000
      0.0000000000       0.0000000000      25.5313887704
PRIMCOORD 1
6 1
22       1.6849922947       0.0000000000      12.0176804441
35       0.0000000000       0.0000000000      10.0189089705
7       1.6849922947       1.9756362478      12.4196077419
22       0.0000000000       1.9756362478      13.5137096310
35       1.6849922947       1.9756362478      15.5124802412
7       0.0000000000       0.0000000000      13.1117821066
