CRYSTAL
PRIMVEC 1
      3.8430604083       0.0000000000       0.0000000000
      0.0000000000       3.8430604083       0.0000000000
      0.0000000000       0.0000000000      23.1822519766
PRIMCOORD 1
4 1
81       1.9215302041       0.0000000000      13.1343437156
9       0.0000000000       1.9215302041      12.5389303460
81       0.0000000000       1.9215302041      10.0479082610
9       1.9215302041       0.0000000000      10.6433216306
