CRYSTAL
PRIMVEC 1
      3.5776577955       0.0000000000       0.0000000000
     -1.7888288977       3.0983425369       0.0000000000
      0.0000000000       0.0000000000      23.0106023332
PRIMCOORD 1
3 1
81       1.7888288977       1.0327808456      13.0325483293
8       1.7888288977       3.0983425369      11.5073573921
81      -0.0000000001       2.0655616912       9.9819949610
