CRYSTAL
PRIMVEC 1
      4.2192010136       0.0000000000       0.0000000000
     -2.1096005068       3.6539352615       0.0000000000
      0.0000000000       0.0000000000      23.2414401913
PRIMCOORD 1
3 1
81       2.1096005068       1.2179784204      13.3014356300
81       0.0000000000       2.4359568409       9.9400045613
16       0.0000000000       0.0000000000      11.6207200957
