CRYSTAL
PRIMVEC 1
      3.3169774715       0.0000000000       0.0000000000
     -1.6584887358       2.8725867541       0.0000000000
      0.0000000000       0.0000000000      23.3640292210
PRIMCOORD 1
3 1
74       1.6584887358       0.9575289180      11.6820786872
34       0.0000000000       1.9150578360       9.9992265297
34       0.0000000000       1.9150578360      13.3648026913
