CRYSTAL
PRIMVEC 1
      3.5666234197       0.0000000000       0.0000000000
     -1.7833117100       3.0887864873       0.0000000000
      0.0000000000       0.0000000000      23.6618426882
PRIMCOORD 1
3 1
52       0.0000000000       2.0591909915      10.0109836309
52       0.0000000000       2.0591909915      13.6508590573
74       1.7833117099       1.0295954958      11.8309263960
