CRYSTAL
PRIMVEC 1
      3.8137503641      -0.0000000000       0.0000000000
     -1.9068751821       3.3028046990       0.0000000000
      0.0000000000       0.0000000000      26.3688323540
PRIMCOORD 1
6 1
17       0.0000000000       2.2018697994      16.3517371064
39       1.9068751820       1.1009348996      11.7542130250
8       1.9068751820       1.1009348996      14.0358339218
39       1.9068751820       3.3028046990      14.6146193289
8       1.9068751820       3.3028046990      12.3329984321
17      -0.0000000001       2.2018697993      10.0170952476
