CRYSTAL
PRIMVEC 1
      4.4637899816       0.0000000000       0.0000000000
     -2.2318949908       3.8657555213       0.0000000000
      0.0000000000       0.0000000000      23.5971896586
PRIMCOORD 1
3 1
53       0.0000000000       2.5771703475      10.0092683510
70       0.0000000000       0.0000000000      11.7985948293
53       2.2318949908       1.2885851737      13.5879213076
