CRYSTAL
PRIMVEC 1
      3.7614195424       0.0000000000       0.0000000000
     -1.8807097712       3.2574848780       0.0000000000
      0.0000000000       0.0000000000      23.0118104407
PRIMCOORD 1
3 1
30       0.0000000000       2.1716565853      11.5059052204
35       0.0000000000       0.0000000000      13.0159811749
35       1.8807097712       1.0858282927       9.9958292658
