CRYSTAL
PRIMVEC 1
      3.6006943636      -0.0000000000       0.0000000000
     -1.8003471818       3.1182927902       0.0000000000
      0.0000000000       0.0000000000      22.7725935563
PRIMCOORD 1
3 1
17      -0.0000000000       2.0788618602      12.7567950103
30       1.8003471818       1.0394309302      11.3862963650
17      -0.0000000000       0.0000000001      10.0157989592
