CRYSTAL
PRIMVEC 1
      3.7120019081      -0.0000000000       0.0000000000
      0.0000000000       3.7120019081       0.0000000000
      0.0000000000       0.0000000000      22.7593417019
PRIMCOORD 1
3 1
30       0.0000000000       0.0000000000      11.3796708509
17       0.0000000000       1.8560009540      10.0120583460
17       1.8560009540      -0.0000000000      12.7472833559
