CRYSTAL
PRIMVEC 1
      4.0755648647       0.0000000000       0.0000000000
     -2.0377824323       3.5295427076       0.0000000000
      0.0000000000       0.0000000000      23.3328023086
PRIMCOORD 1
3 1
53       2.0377824323       1.1765142358      10.0230870404
30      -0.0000000000       0.0000000000      11.6664011543
53       0.0000000000       2.3530284717      13.3097152682
