CRYSTAL
PRIMVEC 1
      3.7663514256       0.0000000000       0.0000000000
      0.0000000000       6.9054751532       0.0000000000
      0.0000000000       0.0000000000      24.3728695009
PRIMCOORD 1
6 1
40       0.9415878564       4.0016718744      12.2396472781
40       2.8247635692       1.4058800766      12.1332240537
53       0.9415878564       6.7011233415      13.8213970979
53       2.8247635692       5.6118763133      10.5514708300
53       0.9415878564       2.1491482066       9.9921873844
53       2.8247635692       3.2583875685      14.3806818588
