CRYSTAL
PRIMVEC 1
      3.6215464513       0.0000000000       0.0000000000
     -1.8107732256       3.1363512278       0.0000000000
      0.0000000000       0.0000000000      26.3165423852
PRIMCOORD 1
6 1
40       0.0000000000       2.0909008185      14.4696214681
7       0.0000000000       2.0909008185      12.2950888947
17       0.0000000000       0.0000000000      10.0312045244
17       0.0000000000       0.0000000000      16.2853378608
40       1.8107732256       1.0454504093      11.8469209171
7       1.8107732256       1.0454504093      14.0214534907
