CRYSTAL
PRIMVEC 1
      3.7473119844       0.0000000000       0.0000000000
      0.0000000000       4.1393123777       0.0000000000
      0.0000000000       0.0000000000      26.2874067030
PRIMCOORD 1
6 1
40       1.8736559922       0.0000000000      12.2950286364
53       0.0000000000       0.0000000000       9.9723158640
7       1.8736559922       2.0696561889      12.9047383596
40       0.0000000000       2.0696561889      13.9923780666
53       1.8736559922       2.0696561889      16.3150908390
7       0.0000000000       0.0000000000      13.3826683435
