CRYSTAL
PRIMVEC 1
      3.7378904820       0.0000000000       0.0000000000
     -1.8689452410       3.2371081140       0.0000000000
      0.0000000000       0.0000000000      26.9402909328
PRIMCOORD 1
6 1
40       1.8689452410       1.0790360380      14.7422543347
7       1.8689452410       1.0790360380      12.5956578104
53       1.8689452409       3.2371081140      16.9624479489
53       1.8689452409       3.2371081140       9.9778429839
40       0.0000000000       2.1580720760      12.1980365981
7       0.0000000000       2.1580720760      14.3446331224
