CRYSTAL
PRIMVEC 1
      3.6598745258       0.0000000000       0.0000000000
     -1.8299372629       3.1695443140       0.0000000000
      0.0000000000       0.0000000000      26.6478360291
PRIMCOORD 1
6 1
40       0.0000000000       2.1130295426      14.6226726558
7       0.0000000000       2.1130295426      12.4555905104
35       1.8299372629       3.1695443139      10.0326204923
35       1.8299372629       3.1695443139      16.6152155368
40       1.8299372629       1.0565147712      12.0251633732
7       1.8299372629       1.0565147712      14.1922455187
