CRYSTAL
PRIMVEC 1
      3.6152489843       0.0000000000       0.0000000000
      0.0000000000       4.1416088481       0.0000000000
      0.0000000000       0.0000000000      25.9222635485
PRIMCOORD 1
6 1
40       1.8076244921       0.0000000000      12.0817035533
35       0.0000000000       0.0000000000       9.9788071948
7       1.8076244921       2.0708044240      12.6756406162
40       0.0000000000       2.0708044240      13.8405626747
35       1.8076244921       2.0708044240      15.9434585260
7       0.0000000000       0.0000000000      13.2466261350
