CRYSTAL
PRIMVEC 1
      3.4834666069       0.0000000000       0.0000000000
     -1.7417333035       3.0167705749       0.0000000000
      0.0000000000       0.0000000000      22.6097254117
PRIMCOORD 1
3 1
40       0.0000000000       0.0000000000      12.0247646597
35       1.7417333035       1.0055901916       9.9956179265
7      -0.0000000000       2.0111803832      12.6066047287
