CRYSTAL
PRIMVEC 1
      3.4350890445       0.0000000000       0.0000000000
     -1.7175445223       2.9748743768       0.0000000000
      0.0000000000       0.0000000000      22.5102178763
PRIMCOORD 1
3 1
40       0.0000000000       0.0000000000      11.8766953947
7       1.7175445223       0.9916247923      12.4977977115
17       0.0000000000       1.9832495845      10.0127652899
