CRYSTAL
PRIMVEC 1
      3.6714880529       0.0000000000       0.0000000000
     -1.8357440265       3.1796019236       0.0000000000
      0.0000000000       0.0000000000      22.9186134249
PRIMCOORD 1
3 1
16       0.0000000000       2.1197346157      12.9177949257
40       0.0000000000       0.0000000000      11.4593067124
16       1.8357440266       1.0598673078      10.0008184992
