CRYSTAL
PRIMVEC 1
      3.7977180811       0.0000000000       0.0000000000
     -1.8988590406       3.2889203347       0.0000000000
      0.0000000000       0.0000000000      23.1967661517
PRIMCOORD 1
3 1
34       1.8988590406       1.0963067783      10.0152122742
40       0.0000000000       0.0000000000      11.5983830758
34       0.0000000000       2.1926135565      13.1815538775
